# Packages
 &PACKAGES
 usePTRACERS=.false.,
 useDiagnostics=.TRUE.,
 useRBCS=.TRUE.,
 useLayers=.false.,
 useGMRedi=.true.,
 /
